
%chk=acetaldehyde_QRC.chk
%nproc=4
%mem=8GB
#opt freq B3LYP/def2tzvp empiricaldispersion=GD3BJ

acetaldehyde_QRC

0 1
 H   0.33785000   1.51500900  -0.08197600
 C   0.23858600   0.40899400  -0.01801200
 C  -1.16763100  -0.13495700   0.00600100
 O   1.22090300  -0.28556300   0.01400300
 H  -1.91311300   0.65951400   0.10200400
 H  -1.27083700  -0.85111600   0.82924400
 H  -1.34685000  -0.68312400  -0.92923300

