
%chk=planar_chex_mode3.chk
%nproc=4
%mem=4GB
# symm=loose opt b3lyp/6-31G* freq

planar_chex_mode3

0 1
 C   0.16785800   1.54628900   0.03956000
 C   1.42312500   0.62775100  -0.02826900
 C   1.25523200  -0.91851600  -0.00943300
 C  -0.16787900  -1.54628900   0.03847400
 C  -1.42311900  -0.62776900  -0.03039000
 C  -1.25521700   0.91853300  -0.00994300
 H   0.23606600   2.14443200   0.95874800
 H   1.98486500   0.88944800  -0.93697700
 H   1.77306300  -1.31790800  -0.88723100
 H  -0.24287700  -2.27639500  -0.77867500
 H  -1.98365200  -0.88869700  -0.94019100
 H  -1.81646700   1.30741500   0.84829500
 H  -1.77241400   1.31870400  -0.88778000
 H  -2.08523800  -0.90625100   0.79584200
 H   0.24077200   2.27667500  -0.77730100
 H   2.08701200   0.90552000   0.79905100
 H   1.81580800  -1.30822500   0.84884500
 H  -0.23693800  -2.14471400   0.95737600

