
%chk=claisen_ts_QRCF.chk
%nproc=4
%mem=8GB
#freq b3lyp/6-31g(d) opt

claisen_ts_QRCF

0 1
 C  -1.36430900   0.83516800  -0.26898400
 C  -1.29105700  -0.49305500   0.25883900
 O  -0.61602600  -1.38245600  -0.26722100
 C   1.42657000  -0.86128400   0.20303400
 C   1.38070200   0.39770400  -0.30179600
 C   0.55767900   1.40129500   0.30423600
 H  -2.04389600   1.54639800   0.19979400
 H  -1.24640000   0.93868900  -1.35399400
 H  -1.68566300  -0.62815100   1.29081200
 H   1.85339400  -1.69390600  -0.34732000
 H   1.16154000  -1.06649500   1.24581600
 H   1.68349600   0.55403400  -1.33567500
 H   0.55702700   2.40694500  -0.11069800
 H   0.45720500   1.38017500   1.39505600

