
%chk=planar_chex_mode1.chk
%nproc=4
%mem=4GB
# symm=loose opt b3lyp/6-31G* freq

planar_chex_mode1

0 1
 C   0.16785800   1.54628900   0.02756000
 C   1.42312500   0.62775100  -0.02526900
 C   1.25523200  -0.91851600   0.02656700
 C  -0.16787900  -1.54628900  -0.02752600
 C  -1.42311900  -0.62776900   0.02661000
 C  -1.25521700   0.91853300  -0.02794300
 H   0.23306600   2.15643200   0.93474800
 H   1.98786500   0.87744800  -0.93097700
 H   1.83606300  -1.34190800  -0.80323100
 H  -0.23387700  -2.15639500  -0.93467500
 H  -2.08265200  -0.91869700  -0.80219100
 H  -1.83746700   1.34341500   0.80029500
 H  -1.75141400   1.28270400  -0.93578000
 H  -1.98623800  -0.87625100   0.93384200
 H   0.24677200   2.26467500  -0.80130100
 H   2.08101200   0.91752000   0.80505100
 H   1.75280800  -1.28422500   0.93284500
 H  -0.24593800  -2.26471400   0.80137600

